7041
  Marvin  12300703363D          

 21 21  0  0  0  0            999 V2000
   -1.7711   -1.5408   -0.4223 O   0  0  0  0  0  0  0  0  0  0  0  0
    2.2812    0.7768   -0.4277 O   0  0  0  0  0  0  0  0  0  0  0  0
    0.9476   -1.5624   -0.5900 O   0  0  0  0  0  0  0  0  0  0  0  0
   -1.1054   -0.4692   -0.5579 C   0  0  0  0  0  0  0  0  0  0  0  0
    1.0193    0.7462   -0.5581 C   0  0  0  0  0  0  0  0  0  0  0  0
    0.3099   -0.4766   -0.5732 C   0  0  0  0  0  0  0  0  0  0  0  0
   -1.7978    0.7550   -0.6518 C   0  0  0  0  0  0  0  0  0  0  0  0
    0.3154    1.9640   -0.6534 C   0  0  0  0  0  0  0  0  0  0  0  0
   -1.0897    1.9688   -0.7102 C   0  0  0  0  0  0  0  0  0  0  0  0
   -2.0347   -2.1442    0.7434 C   0  0  0  0  0  0  0  0  0  0  0  0
    2.9374    0.7145    0.7371 C   0  0  0  0  0  0  0  0  0  0  0  0
   -2.8209    0.7727   -0.6625 H   0  0  0  0  0  0  0  0  0  0  0  0
    0.8197    2.8541   -0.6674 H   0  0  0  0  0  0  0  0  0  0  0  0
   -1.5958    2.8543   -0.7759 H   0  0  0  0  0  0  0  0  0  0  0  0
   -2.5829   -3.0649    0.5461 H   0  0  0  0  0  0  0  0  0  0  0  0
   -2.6561   -1.5101    1.3814 H   0  0  0  0  0  0  0  0  0  0  0  0
   -1.1235   -2.4042    1.2894 H   0  0  0  0  0  0  0  0  0  0  0  0
    4.0084    0.7217    0.5369 H   0  0  0  0  0  0  0  0  0  0  0  0
    2.7040    1.5785    1.3651 H   0  0  0  0  0  0  0  0  0  0  0  0
    2.7034   -0.1973    1.2935 H   0  0  0  0  0  0  0  0  0  0  0  0
    0.5316   -2.3367   -0.6426 H   0  0  0  0  0  0  0  0  0  0  0  0
  1  4  1  0  0  0  0
  1 10  1  0  0  0  0
  2  5  1  0  0  0  0
  2 11  1  0  0  0  0
  3  6  1  0  0  0  0
  3 21  1  0  0  0  0
  4  6  2  0  0  0  0
  4  7  1  0  0  0  0
  5  6  1  0  0  0  0
  5  8  2  0  0  0  0
  7  9  2  0  0  0  0
  7 12  1  0  0  0  0
  8  9  1  0  0  0  0
  8 13  1  0  0  0  0
  9 14  1  0  0  0  0
 10 15  1  0  0  0  0
 10 16  1  0  0  0  0
 10 17  1  0  0  0  0
 11 18  1  0  0  0  0
 11 19  1  0  0  0  0
 11 20  1  0  0  0  0
M  END

> <PUBCHEM_BONDANNOTATIONS>
4  6  8
4  7  8
5  6  8
5  8  8
7  9  8
8  9  8

> <StdInChI>
InChI=1S/C8H10O3/c1-10-6-4-3-5-7(11-2)8(6)9/h3-5,9H,1-2H3

> <StdInChIKey>
KLIDCXVFHGNTTM-UHFFFAOYSA-N

> <AuxInfo>
1/0/N:10,11,9,7,8,4,5,6,3,1,2/E:(1,2)(4,5)(6,7)(10,11)/rA:21nOOOCCCCCCCCHHHHHHHHHH/rB:;;s1;s2;s3d4s5;s4;d5;d7s8;s1;s2;s7;s8;s9;s10;s10;s10;s11;s11;s11;s3;/rC:-1.7711,-1.5408,-.4223;2.2812,.7768,-.4277;.9476,-1.5624,-.59;-1.1054,-.4692,-.5579;1.0193,.7462,-.5581;.3099,-.4766,-.5732;-1.7978,.755,-.6518;.3154,1.964,-.6534;-1.0897,1.9688,-.7102;-2.0347,-2.1442,.7434;2.9374,.7145,.7371;-2.8209,.7727,-.6625;.8197,2.8541,-.6674;-1.5958,2.8543,-.7759;-2.5829,-3.0649,.5461;-2.6561,-1.5101,1.3814;-1.1235,-2.4042,1.2894;4.0084,.7217,.5369;2.704,1.5785,1.3651;2.7034,-.1973,1.2935;.5316,-2.3367,-.6426;

> <Formula>
C8 H10 O3

> <Mw>
154.1632

> <SMILES>
O(C([H])([H])[H])C1C([H])=C([H])C([H])=C(C=1O[H])OC([H])([H])[H]

> <CSID>
6774

$$$$
